<?xml version="1.0" encoding="UTF-8"?>

<!-- generated on 2023-07-21 17:04:09 by Eclipse SUMO netedit Version 1.17.0
-->

<additional xmlns:xsi="http://www.w3.org/2001/XMLSchema-instance" xsi:noNamespaceSchemaLocation="http://sumo.dlr.de/xsd/additional_file.xsd">
    <!-- StoppingPlaces -->
    <busStop id="bs_0" lane="E4_1" startPos="0.37" endPos="10.37"/>
    <busStop id="bs_1" lane="E1_1" startPos="23.67" endPos="33.67"/>
    <busStop id="bs_2" lane="48563882#0_1" startPos="19.47" endPos="29.47"/>
</additional>
