<?xml version="1.0" encoding="UTF-8"?>

<!-- generated on 2023-07-21 16:55:10 by Eclipse SUMO netedit Version 1.17.0
<configuration xmlns:xsi="http://www.w3.org/2001/XMLSchema-instance" xsi:noNamespaceSchemaLocation="http://sumo.dlr.de/xsd/netconvertConfiguration.xsd">

    <input>
        <sumo-net-file value="/Users/aldotestino/Documents/poliBA/Magistrale/I/Artificial Intelligence for Automation/progetto/scenario_7/bari.net.xml"/>
    </input>

    <output>
        <output-file value="/Users/aldotestino/Documents/poliBA/Magistrale/I/Artificial Intelligence for Automation/progetto/scenario_7/bari.net.xml"/>
        <output.street-names value="true"/>
    </output>

    <processing>
        <geometry.min-radius.fix.railways value="false"/>
        <geometry.max-grade.fix value="false"/>
        <offset.disable-normalization value="true"/>
        <lefthand value="0"/>
    </processing>

    <junctions>
        <no-turnarounds value="true"/>
        <junctions.corner-detail value="5"/>
        <junctions.limit-turn-speed value="5.50"/>
        <rectangular-lane-cut value="0"/>
    </junctions>

    <pedestrian>
        <walkingareas value="0"/>
    </pedestrian>

</configuration>
-->

<net version="1.16" junctionCornerDetail="5" limitTurnSpeed="5.50" xmlns:xsi="http://www.w3.org/2001/XMLSchema-instance" xsi:noNamespaceSchemaLocation="http://sumo.dlr.de/xsd/net_file.xsd">

    <location netOffset="-654271.77,-4553374.21" convBoundary="0.00,306.53,2939.50,1238.96" origBoundary="16.837873,41.116443,16.889036,41.137311" projParameter="+proj=utm +zone=33 +ellps=WGS84 +datum=WGS84 +units=m +no_defs"/>

    <type id="highway.bridleway" priority="1" numLanes="1" speed="2.78" allow="pedestrian" oneway="1" width="2.00"/>
    <type id="highway.bus_guideway" priority="1" numLanes="1" speed="27.78" allow="bus" oneway="1"/>
    <type id="highway.cycleway" priority="1" numLanes="1" speed="5.56" allow="bicycle" oneway="0" width="1.00"/>
    <type id="highway.footway" priority="1" numLanes="1" speed="2.78" allow="pedestrian" oneway="1" width="2.00"/>
    <type id="highway.ford" priority="1" numLanes="1" speed="2.78" allow="army" oneway="0"/>
    <type id="highway.living_street" priority="2" numLanes="1" speed="2.78" disallow="tram rail_urban rail rail_electric rail_fast ship" oneway="0"/>
    <type id="highway.motorway" priority="14" numLanes="2" speed="39.44" allow="private emergency authority army vip passenger hov taxi bus coach delivery truck trailer motorcycle evehicle custom1 custom2" oneway="1"/>
    <type id="highway.motorway_link" priority="9" numLanes="1" speed="22.22" allow="private emergency authority army vip passenger hov taxi bus coach delivery truck trailer motorcycle evehicle custom1 custom2" oneway="1"/>
    <type id="highway.path" priority="1" numLanes="1" speed="5.56" allow="pedestrian bicycle" oneway="0" width="2.00"/>
    <type id="highway.pedestrian" priority="1" numLanes="1" speed="2.78" allow="pedestrian" oneway="1" width="2.00"/>
    <type id="highway.primary" priority="12" numLanes="2" speed="27.78" disallow="tram rail_urban rail rail_electric rail_fast ship" oneway="0"/>
    <type id="highway.primary_link" priority="7" numLanes="1" speed="22.22" disallow="tram rail_urban rail rail_electric rail_fast ship" oneway="0"/>
    <type id="highway.raceway" priority="15" numLanes="2" speed="83.33" allow="vip" oneway="0"/>
    <type id="highway.residential" priority="3" numLanes="1" speed="13.89" disallow="tram rail_urban rail rail_electric rail_fast ship" oneway="0"/>
    <type id="highway.secondary" priority="11" numLanes="1" speed="27.78" disallow="tram rail_urban rail rail_electric rail_fast ship" oneway="0"/>
    <type id="highway.secondary_link" priority="6" numLanes="1" speed="22.22" disallow="tram rail_urban rail rail_electric rail_fast ship" oneway="0"/>
    <type id="highway.service" priority="1" numLanes="1" speed="5.56" allow="pedestrian delivery bicycle" oneway="0"/>
    <type id="highway.stairs" priority="1" numLanes="1" speed="1.39" allow="pedestrian" oneway="1" width="2.00"/>
    <type id="highway.step" priority="1" numLanes="1" speed="1.39" allow="pedestrian" oneway="1" width="2.00"/>
    <type id="highway.steps" priority="1" numLanes="1" speed="1.39" allow="pedestrian" oneway="1" width="2.00"/>
    <type id="highway.tertiary" priority="10" numLanes="1" speed="22.22" disallow="tram rail_urban rail rail_electric rail_fast ship" oneway="0"/>
    <type id="highway.tertiary_link" priority="5" numLanes="1" speed="22.22" disallow="tram rail_urban rail rail_electric rail_fast ship" oneway="0"/>
    <type id="highway.track" priority="1" numLanes="1" speed="5.56" allow="pedestrian motorcycle moped bicycle" oneway="0"/>
    <type id="highway.trunk" priority="13" numLanes="2" speed="27.78" disallow="pedestrian bicycle tram rail_urban rail rail_electric rail_fast ship" oneway="0"/>
    <type id="highway.trunk_link" priority="8" numLanes="1" speed="22.22" disallow="pedestrian bicycle tram rail_urban rail rail_electric rail_fast ship" oneway="0"/>
    <type id="highway.unclassified" priority="4" numLanes="1" speed="13.89" disallow="tram rail_urban rail rail_electric rail_fast ship" oneway="0"/>
    <type id="highway.unsurfaced" priority="1" numLanes="1" speed="8.33" disallow="tram rail_urban rail rail_electric rail_fast ship" oneway="0"/>
    <type id="railway.highspeed" priority="21" numLanes="1" speed="69.44" allow="rail_fast" oneway="1"/>
    <type id="railway.light_rail" priority="19" numLanes="1" speed="27.78" allow="rail_urban" oneway="1"/>
    <type id="railway.preserved" priority="16" numLanes="1" speed="27.78" allow="rail" oneway="1"/>
    <type id="railway.rail" priority="20" numLanes="1" speed="44.44" allow="rail" oneway="1"/>
    <type id="railway.subway" priority="18" numLanes="1" speed="27.78" allow="rail_urban" oneway="1"/>
    <type id="railway.tram" priority="17" numLanes="1" speed="13.89" allow="tram" oneway="1"/>

    <edge id=":270388346_0" function="internal">
        <lane id=":270388346_0_0" index="0" disallow="tram rail_urban rail rail_electric rail_fast ship" speed="13.89" length="11.20" shape="1945.58,840.27 1946.63,829.12"/>
    </edge>
    <edge id=":270388346_1" function="internal">
        <lane id=":270388346_1_0" index="0" disallow="tram rail_urban rail rail_electric rail_fast ship" speed="6.49" length="9.03" shape="1945.58,840.27 1946.16,837.86 1947.37,836.22 1949.22,835.35 1951.69,835.25"/>
    </edge>
    <edge id=":270388358_0" function="internal">
        <lane id=":270388358_0_0" index="0" disallow="tram rail_urban rail rail_electric rail_fast ship" speed="6.93" length="4.84" shape="1958.21,765.71 1955.11,765.06 1953.66,764.21"/>
    </edge>
    <edge id=":270388358_2" function="internal">
        <lane id=":270388358_2_0" index="0" disallow="tram rail_urban rail rail_electric rail_fast ship" speed="6.93" length="5.50" shape="1953.66,764.21 1952.97,763.80 1951.79,761.93 1951.57,759.46"/>
    </edge>
    <edge id=":270388358_1" function="internal">
        <lane id=":270388358_1_0" index="0" disallow="tram rail_urban rail rail_electric rail_fast ship" speed="13.89" length="11.32" shape="1952.12,770.74 1952.16,767.58 1951.84,765.10 1951.52,762.62 1951.57,759.46"/>
    </edge>
    <edge id=":270388441_0" function="internal">
        <lane id=":270388441_0_0" index="0" speed="13.89" length="11.20" shape="1957.52,696.15 1958.57,684.99"/>
    </edge>
    <edge id=":270388441_1" function="internal">
        <lane id=":270388441_1_0" index="0" disallow="tram rail_urban rail rail_electric rail_fast ship" speed="6.50" length="9.03" shape="1957.52,696.15 1958.10,693.74 1959.31,692.10 1961.15,691.22 1963.63,691.11"/>
    </edge>
    <edge id=":270388512_0" function="internal">
        <lane id=":270388512_0_0" index="0" disallow="tram rail_urban rail rail_electric rail_fast ship" speed="6.51" length="9.02" shape="1972.19,616.92 1969.79,616.33 1968.15,615.12 1967.27,613.28 1967.15,610.82"/>
    </edge>
    <edge id=":270388512_1" function="internal">
        <lane id=":270388512_1_0" index="0" disallow="tram rail_urban rail rail_electric rail_fast ship" speed="13.89" length="11.32" shape="1964.51,621.80 1965.06,618.68 1965.83,616.31 1966.61,613.93 1967.15,610.82"/>
    </edge>
    <edge id=":270388532_0" function="internal">
        <lane id=":270388532_0_0" index="0" disallow="tram rail_urban rail rail_electric rail_fast ship" speed="6.51" length="4.11" shape="1985.92,470.95 1983.52,470.37 1982.21,469.40"/>
    </edge>
    <edge id=":270388532_2" function="internal">
        <lane id=":270388532_2_0" index="0" disallow="tram rail_urban rail rail_electric rail_fast ship" speed="6.51" length="4.93" shape="1982.21,469.40 1981.87,469.16 1980.99,467.32 1980.87,464.85"/>
    </edge>
    <edge id=":270388532_1" function="internal">
        <lane id=":270388532_1_0" index="0" disallow="tram rail_urban rail rail_electric rail_fast ship" speed="13.89" length="11.20" shape="1979.83,475.99 1980.87,464.85"/>
    </edge>
    <edge id=":270388536_0" function="internal">
        <lane id=":270388536_0_0" index="0" disallow="tram rail_urban rail rail_electric rail_fast ship" speed="13.89" length="11.20" shape="1987.61,393.11 1988.66,381.96"/>
    </edge>
    <edge id=":270388536_1" function="internal">
        <lane id=":270388536_1_0" index="0" disallow="tram rail_urban rail rail_electric rail_fast ship" speed="6.49" length="9.03" shape="1987.61,393.11 1988.19,390.70 1989.40,389.06 1991.25,388.19 1993.72,388.09"/>
    </edge>
    <edge id=":270388700_0" function="internal">
        <lane id=":270388700_0_0" index="0" disallow="tram rail_urban rail rail_electric rail_fast ship" speed="6.50" length="9.03" shape="2497.90,523.04 2495.42,523.14 2493.58,524.01 2492.36,525.65 2491.77,528.06"/>
    </edge>
    <edge id=":270388700_1" function="internal">
        <lane id=":270388700_1_0" index="0" disallow="tram rail_urban rail rail_electric rail_fast ship" speed="13.89" length="11.19" shape="2497.90,523.04 2486.76,521.89"/>
    </edge>
    <edge id=":270388755_0" function="internal">
        <lane id=":270388755_0_0" index="0" disallow="tram rail_urban rail rail_electric rail_fast ship" speed="13.89" length="13.09" shape="2635.81,537.08 2622.79,535.77"/>
    </edge>
    <edge id=":270388755_1" function="internal">
        <lane id=":270388755_1_0" index="0" disallow="pedestrian tram rail_urban rail rail_electric rail_fast ship" speed="6.48" length="4.47" shape="2635.81,537.08 2633.43,536.50 2631.81,535.30"/>
    </edge>
    <edge id=":270388755_4" function="internal">
        <lane id=":270388755_4_0" index="0" disallow="pedestrian tram rail_urban rail rail_electric rail_fast ship" speed="6.48" length="4.48" shape="2631.81,535.30 2630.94,533.48 2630.83,531.02"/>
    </edge>
    <edge id=":270388755_2" function="internal">
        <lane id=":270388755_2_0" index="0" disallow="tram rail_urban rail rail_electric rail_fast ship" speed="6.79" length="9.81" shape="2628.81,541.98 2628.61,539.52 2627.55,537.67 2625.60,536.42 2622.79,535.77"/>
    </edge>
    <edge id=":270388755_3" function="internal">
        <lane id=":270388755_3_0" index="0" disallow="pedestrian tram rail_urban rail rail_electric rail_fast ship" speed="13.89" length="11.16" shape="2628.81,541.98 2629.23,538.95 2629.78,536.72 2630.35,534.37 2630.83,531.02"/>
    </edge>
    <edge id=":270388925_0" function="internal">
        <lane id=":270388925_0_0" index="0" disallow="tram rail_urban rail rail_electric rail_fast ship" speed="6.52" length="8.96" shape="2777.39,462.33 2777.50,464.77 2778.37,466.60 2779.99,467.82 2782.37,468.44"/>
    </edge>
    <edge id=":270388925_1" function="internal">
        <lane id=":270388925_1_0" index="0" disallow="tram rail_urban rail rail_electric rail_fast ship" speed="13.89" length="11.05" shape="2777.39,462.33 2776.29,473.33"/>
    </edge>
    <edge id=":270659688_0" function="internal">
        <lane id=":270659688_0_0" index="0" disallow="tram rail_urban rail rail_electric rail_fast ship" speed="13.89" length="9.38" shape="2650.10,368.10 2647.34,368.12 2645.44,368.50 2643.55,368.88 2640.79,368.87"/>
    </edge>
    <edge id=":270659688_1" function="internal">
        <lane id=":270659688_1_0" index="0" disallow="pedestrian tram rail_urban rail rail_electric rail_fast ship" speed="5.99" length="7.49" shape="2646.03,372.99 2645.83,371.38 2644.89,370.16 2643.21,369.32 2640.79,368.87"/>
    </edge>
    <edge id=":305365110_0" function="internal">
        <lane id=":305365110_0_0" index="0" disallow="tram rail_urban rail rail_electric rail_fast ship" speed="6.48" length="9.03" shape="2170.71,407.76 2168.23,407.84 2166.38,408.70 2165.17,410.34 2164.58,412.75"/>
    </edge>
    <edge id=":305365110_1" function="internal">
        <lane id=":305365110_1_0" index="0" disallow="tram rail_urban rail rail_electric rail_fast ship" speed="3.65" length="1.44" shape="2170.71,407.76 2169.60,406.83"/>
    </edge>
    <edge id=":305365110_6" function="internal">
        <lane id=":305365110_6_0" index="0" disallow="tram rail_urban rail rail_electric rail_fast ship" speed="3.65" length="3.23" shape="2169.60,406.83 2169.29,406.00 2169.77,405.24 2171.05,404.58"/>
    </edge>
    <edge id=":305365110_2" function="internal">
        <lane id=":305365110_2_0" index="0" disallow="tram rail_urban rail rail_electric rail_fast ship" speed="6.56" length="9.10" shape="2165.95,398.41 2166.07,400.88 2166.96,402.73 2168.62,403.96 2171.05,404.58"/>
    </edge>
    <edge id=":305365110_3" function="internal">
        <lane id=":305365110_3_0" index="0" disallow="tram rail_urban rail rail_electric rail_fast ship" speed="13.89" length="14.40" shape="2165.95,398.41 2164.58,412.75"/>
    </edge>
    <edge id=":305365110_4" function="internal">
        <lane id=":305365110_4_0" index="0" disallow="tram rail_urban rail rail_electric rail_fast ship" speed="13.89" length="11.40" shape="2159.69,404.99 2162.86,405.06 2165.37,404.77 2167.88,404.49 2171.05,404.58"/>
    </edge>
    <edge id=":305365110_5" function="internal">
        <lane id=":305365110_5_0" index="0" disallow="tram rail_urban rail rail_electric rail_fast ship" speed="6.95" length="6.32" shape="2159.69,404.99 2162.09,405.69 2163.70,407.21 2164.23,408.72"/>
    </edge>
    <edge id=":305365110_7" function="internal">
        <lane id=":305365110_7_0" index="0" disallow="tram rail_urban rail rail_electric rail_fast ship" speed="6.95" length="4.08" shape="2164.23,408.72 2164.53,409.57 2164.58,412.75"/>
    </edge>
    <edge id=":305365113_0" function="internal">
        <lane id=":305365113_0_0" index="0" disallow="tram rail_urban rail rail_electric rail_fast ship" speed="6.49" length="9.03" shape="2163.05,487.68 2160.58,487.78 2158.73,488.64 2157.52,490.28 2156.93,492.69"/>
    </edge>
    <edge id=":305365113_1" function="internal">
        <lane id=":305365113_1_0" index="0" disallow="tram rail_urban rail rail_electric rail_fast ship" speed="13.89" length="11.22" shape="2163.05,487.68 2151.89,486.57"/>
    </edge>
    <edge id=":305365113_2" function="internal">
        <lane id=":305365113_2_0" index="0" disallow="tram rail_urban rail rail_electric rail_fast ship" speed="13.89" length="11.21" shape="2158.00,481.53 2156.93,492.69"/>
    </edge>
    <edge id=":305365113_3" function="internal">
        <lane id=":305365113_3_0" index="0" disallow="tram rail_urban rail rail_electric rail_fast ship" speed="6.51" length="4.14" shape="2158.00,481.53 2157.42,483.93 2156.43,485.27"/>
    </edge>
    <edge id=":305365113_4" function="internal">
        <lane id=":305365113_4_0" index="0" disallow="tram rail_urban rail rail_electric rail_fast ship" speed="6.51" length="4.90" shape="2156.43,485.27 2156.21,485.58 2154.37,486.46 2151.89,486.57"/>
    </edge>
    <edge id=":305365115_0" function="internal">
        <lane id=":305365115_0_0" index="0" disallow="tram rail_urban rail rail_electric rail_fast ship" speed="6.52" length="9.02" shape="2150.98,554.85 2151.10,557.32 2151.97,559.16 2153.61,560.38 2156.01,560.97"/>
    </edge>
    <edge id=":305365115_1" function="internal">
        <lane id=":305365115_1_0" index="0" disallow="tram rail_urban rail rail_electric rail_fast ship" speed="13.89" length="11.17" shape="2150.98,554.85 2149.92,565.97"/>
    </edge>
    <edge id=":305365115_2" function="internal">
        <lane id=":305365115_2_0" index="0" disallow="tram rail_urban rail rail_electric rail_fast ship" speed="22.22" length="11.17" shape="2144.89,559.85 2156.01,560.97"/>
    </edge>
    <edge id=":305365115_3" function="internal">
        <lane id=":305365115_3_0" index="0" disallow="tram rail_urban rail rail_electric rail_fast ship" speed="6.52" length="9.02" shape="2144.89,559.85 2147.29,560.44 2148.93,561.66 2149.80,563.50 2149.92,565.97"/>
    </edge>
    <edge id=":306256362_0" function="internal">
        <lane id=":306256362_0_0" index="0" disallow="pedestrian tram rail_urban rail rail_electric rail_fast ship" speed="9.38" length="19.74" shape="2871.74,853.54 2879.43,853.96 2885.02,853.47 2888.49,852.06 2889.85,849.75"/>
    </edge>
    <edge id=":306256362_1" function="internal">
        <lane id=":306256362_1_0" index="0" disallow="tram rail_urban rail rail_electric rail_fast ship" speed="6.33" length="15.45" shape="2871.74,853.54 2875.37,855.22 2876.82,858.50 2876.00,862.12 2872.84,864.82"/>
    </edge>
    <edge id=":306256362_2" function="internal">
        <lane id=":306256362_2_0" index="0" disallow="tram rail_urban rail rail_electric rail_fast ship" speed="3.65" length="4.67" shape="2871.74,853.54 2872.85,854.45 2873.17,855.29 2872.70,856.05 2871.42,856.72"/>
    </edge>
    <edge id=":306256362_3" function="internal">
        <lane id=":306256362_3_0" index="0" disallow="tram rail_urban rail rail_electric rail_fast ship" speed="5.57" length="11.57" shape="2871.96,861.72 2875.58,859.92 2876.70,858.49 2875.31,857.42 2871.42,856.72"/>
    </edge>
    <edge id=":306256362_4" function="internal">
        <lane id=":306256362_4_0" index="0" disallow="pedestrian" speed="12.40" length="22.06" shape="2871.96,861.72 2879.59,858.32 2885.11,855.19 2888.53,852.34 2889.85,849.75"/>
    </edge>
    <edge id=":306256363_0" function="internal">
        <lane id=":306256363_0_0" index="0" disallow="tram rail_urban rail rail_electric rail_fast ship" speed="7.01" length="10.69" shape="2889.72,780.86 2893.06,780.85 2895.53,780.05 2897.11,778.44 2897.82,776.05"/>
    </edge>
    <edge id=":306256363_1" function="internal">
        <lane id=":306256363_1_0" index="0" disallow="pedestrian" speed="13.89" length="14.44" shape="2896.35,790.41 2897.82,776.05"/>
    </edge>
    <edge id=":306256364_0" function="internal">
        <lane id=":306256364_0_0" index="0" disallow="tram rail_urban rail rail_electric rail_fast ship" speed="7.34" length="2.47" shape="2908.03,703.76 2907.20,706.09"/>
    </edge>
    <edge id=":306256364_3" function="internal">
        <lane id=":306256364_3_0" index="0" disallow="tram rail_urban rail rail_electric rail_fast ship" speed="7.34" length="9.18" shape="2907.20,706.09 2905.37,707.63 2902.53,708.37 2898.68,708.31"/>
    </edge>
    <edge id=":306256364_1" function="internal">
        <lane id=":306256364_1_0" index="0" disallow="tram rail_urban rail rail_electric rail_fast ship" speed="6.51" length="8.97" shape="2903.67,714.41 2903.56,711.96 2902.69,710.12 2901.06,708.91 2898.68,708.31"/>
    </edge>
    <edge id=":306256364_2" function="internal">
        <lane id=":306256364_2_0" index="0" speed="13.89" length="11.09" shape="2903.67,714.41 2904.85,703.38"/>
    </edge>
    <edge id=":320970914_0" function="internal">
        <lane id=":320970914_0_0" index="0" disallow="tram rail_urban rail rail_electric rail_fast ship" speed="13.89" length="11.53" shape="2215.15,936.30 2211.95,936.23 2209.39,936.49 2206.83,936.70 2203.65,936.49"/>
    </edge>
    <edge id=":320970914_1" function="internal">
        <lane id=":320970914_1_0" index="0" disallow="tram rail_urban rail rail_electric rail_fast ship" speed="6.95" length="10.43" shape="2215.15,936.30 2212.76,935.61 2211.15,934.08 2210.33,931.71 2210.29,928.50"/>
    </edge>
    <edge id=":320970914_2" function="internal">
        <lane id=":320970914_2_0" index="0" disallow="tram rail_urban rail rail_electric rail_fast ship" speed="6.40" length="9.04" shape="2204.12,933.33 2206.61,933.34 2208.47,932.53 2209.69,930.92 2210.29,928.50"/>
    </edge>
    <edge id=":320970918_0" function="internal">
        <lane id=":320970918_0_0" index="0" disallow="tram rail_urban rail rail_electric rail_fast ship" speed="13.89" length="11.20" shape="2311.25,945.86 2300.10,944.74"/>
    </edge>
    <edge id=":320970918_1" function="internal">
        <lane id=":320970918_1_0" index="0" disallow="tram rail_urban rail rail_electric rail_fast ship" speed="6.50" length="9.03" shape="2306.21,939.72 2305.63,942.13 2304.42,943.77 2302.58,944.64 2300.10,944.74"/>
    </edge>
    <edge id=":320970921_0" function="internal">
        <lane id=":320970921_0_0" index="0" disallow="tram rail_urban rail rail_electric rail_fast ship" speed="13.89" length="11.18" shape="2405.71,955.26 2394.58,954.15"/>
    </edge>
    <edge id=":320970921_1" function="internal">
        <lane id=":320970921_1_0" index="0" disallow="tram rail_urban rail rail_electric rail_fast ship" speed="6.51" length="9.02" shape="2405.71,955.26 2403.31,954.67 2401.68,953.45 2400.81,951.60 2400.70,949.13"/>
    </edge>
    <edge id=":320970925_0" function="internal">
        <lane id=":320970925_0_0" index="0" disallow="tram rail_urban rail rail_electric rail_fast ship" speed="13.89" length="11.20" shape="2455.17,960.19 2444.03,959.08"/>
    </edge>
    <edge id=":320970925_1" function="internal">
        <lane id=":320970925_1_0" index="0" disallow="tram rail_urban rail rail_electric rail_fast ship" speed="6.50" length="4.11" shape="2450.15,954.05 2449.56,956.46 2448.58,957.77"/>
    </edge>
    <edge id=":320970925_2" function="internal">
        <lane id=":320970925_2_0" index="0" disallow="tram rail_urban rail rail_electric rail_fast ship" speed="6.50" length="4.92" shape="2448.58,957.77 2448.34,958.10 2446.50,958.97 2444.03,959.08"/>
    </edge>
    <edge id=":320970928_0" function="internal">
        <lane id=":320970928_0_0" index="0" disallow="tram rail_urban rail rail_electric rail_fast ship" speed="13.89" length="11.19" shape="2543.05,969.10 2531.91,967.98"/>
    </edge>
    <edge id=":320970928_1" function="internal">
        <lane id=":320970928_1_0" index="0" disallow="tram rail_urban rail rail_electric rail_fast ship" speed="6.51" length="4.10" shape="2538.05,962.97 2537.45,965.37 2536.48,966.68"/>
    </edge>
    <edge id=":320970928_2" function="internal">
        <lane id=":320970928_2_0" index="0" disallow="tram rail_urban rail rail_electric rail_fast ship" speed="6.51" length="4.93" shape="2536.48,966.68 2536.23,967.01 2534.38,967.87 2531.91,967.98"/>
    </edge>
    <edge id=":320970931_0" function="internal">
        <lane id=":320970931_0_0" index="0" disallow="tram rail_urban rail rail_electric rail_fast ship" speed="13.89" length="6.53" shape="2589.12,975.33 2587.26,974.92 2586.07,974.26 2584.88,973.60 2583.03,973.16"/>
    </edge>
    <edge id=":320970931_1" function="internal">
        <lane id=":320970931_1_0" index="0" disallow="tram rail_urban rail rail_electric rail_fast ship" speed="6.06" length="7.80" shape="2589.12,975.33 2587.77,974.82 2586.90,973.56 2586.51,971.54 2586.60,968.77"/>
    </edge>
    <edge id=":320970947_0" function="internal">
        <lane id=":320970947_0_0" index="0" disallow="tram rail_urban rail rail_electric rail_fast ship" speed="6.52" length="9.02" shape="2457.25,881.29 2457.36,883.76 2458.24,885.60 2459.87,886.82 2462.27,887.42"/>
    </edge>
    <edge id=":320970947_1" function="internal">
        <lane id=":320970947_1_0" index="0" disallow="tram rail_urban rail rail_electric rail_fast ship" speed="13.89" length="11.18" shape="2457.25,881.29 2456.16,892.41"/>
    </edge>
    <edge id=":320970947_2" function="internal">
        <lane id=":320970947_2_0" index="0" disallow="tram rail_urban rail rail_electric rail_fast ship" speed="13.89" length="11.18" shape="2451.15,886.28 2462.27,887.42"/>
    </edge>
    <edge id=":320970947_3" function="internal">
        <lane id=":320970947_3_0" index="0" disallow="tram rail_urban rail rail_electric rail_fast ship" speed="6.51" length="4.09" shape="2451.15,886.28 2453.55,886.88 2454.85,887.85"/>
    </edge>
    <edge id=":320970947_4" function="internal">
        <lane id=":320970947_4_0" index="0" disallow="tram rail_urban rail rail_electric rail_fast ship" speed="6.51" length="4.93" shape="2454.85,887.85 2455.18,888.10 2456.06,889.94 2456.16,892.41"/>
    </edge>
    <edge id=":320970951_0" function="internal">
        <lane id=":320970951_0_0" index="0" disallow="tram rail_urban rail rail_electric rail_fast ship" speed="6.50" length="9.03" shape="2401.63,881.23 2404.11,881.13 2405.95,880.26 2407.17,878.62 2407.75,876.22"/>
    </edge>
    <edge id=":320970951_1" function="internal">
        <lane id=":320970951_1_0" index="0" disallow="tram rail_urban rail rail_electric rail_fast ship" speed="13.89" length="11.22" shape="2401.63,881.23 2412.79,882.37"/>
    </edge>
    <edge id=":320970951_2" function="internal">
        <lane id=":320970951_2_0" index="0" disallow="tram rail_urban rail rail_electric rail_fast ship" speed="13.89" length="11.22" shape="2406.67,887.38 2407.75,876.22"/>
    </edge>
    <edge id=":320970951_3" function="internal">
        <lane id=":320970951_3_0" index="0" disallow="tram rail_urban rail rail_electric rail_fast ship" speed="6.50" length="4.12" shape="2406.67,887.38 2407.26,884.98 2408.23,883.66"/>
    </edge>
    <edge id=":320970951_4" function="internal">
        <lane id=":320970951_4_0" index="0" disallow="tram rail_urban rail rail_electric rail_fast ship" speed="6.50" length="4.91" shape="2408.23,883.66 2408.47,883.34 2410.31,882.47 2412.79,882.37"/>
    </edge>
    <edge id=":320970954_0" function="internal">
        <lane id=":320970954_0_0" index="0" disallow="tram rail_urban rail rail_electric rail_fast ship" speed="6.51" length="9.02" shape="2545.64,890.32 2545.75,892.79 2546.62,894.64 2548.25,895.86 2550.65,896.46"/>
    </edge>
    <edge id=":320970954_1" function="internal">
        <lane id=":320970954_1_0" index="0" disallow="tram rail_urban rail rail_electric rail_fast ship" speed="13.89" length="11.19" shape="2545.64,890.32 2544.51,901.45"/>
    </edge>
    <edge id=":320970954_2" function="internal">
        <lane id=":320970954_2_0" index="0" disallow="tram rail_urban rail rail_electric rail_fast ship" speed="13.89" length="11.18" shape="2539.53,895.32 2550.65,896.46"/>
    </edge>
    <edge id=":320970954_3" function="internal">
        <lane id=":320970954_3_0" index="0" disallow="tram rail_urban rail rail_electric rail_fast ship" speed="6.50" length="4.08" shape="2539.53,895.32 2541.92,895.92 2543.21,896.88"/>
    </edge>
    <edge id=":320970954_4" function="internal">
        <lane id=":320970954_4_0" index="0" disallow="tram rail_urban rail rail_electric rail_fast ship" speed="6.50" length="4.93" shape="2543.21,896.88 2543.55,897.14 2544.41,898.98 2544.51,901.45"/>
    </edge>
    <edge id=":320970958_0" function="internal">
        <lane id=":320970958_0_0" index="0" disallow="tram rail_urban rail rail_electric rail_fast ship" speed="6.92" length="10.32" shape="2588.09,900.28 2590.58,900.09 2592.45,898.93 2593.73,896.81 2594.40,893.73"/>
    </edge>
    <edge id=":320970958_1" function="internal">
        <lane id=":320970958_1_0" index="0" disallow="tram rail_urban rail rail_electric rail_fast ship" speed="13.89" length="11.35" shape="2588.09,900.28 2591.26,900.36 2593.76,900.08 2596.25,899.82 2599.41,899.96"/>
    </edge>
    <edge id=":320970958_2" function="internal">
        <lane id=":320970958_2_0" index="0" disallow="tram rail_urban rail rail_electric rail_fast ship" speed="13.89" length="12.75" shape="2593.08,906.42 2594.40,893.73"/>
    </edge>
    <edge id=":320970958_3" function="internal">
        <lane id=":320970958_3_0" index="0" disallow="tram rail_urban rail rail_electric rail_fast ship" speed="6.86" length="4.83" shape="2593.08,906.42 2593.76,903.33 2594.62,901.91"/>
    </edge>
    <edge id=":320970958_4" function="internal">
        <lane id=":320970958_4_0" index="0" disallow="tram rail_urban rail rail_electric rail_fast ship" speed="6.86" length="5.48" shape="2594.62,901.91 2595.04,901.22 2596.92,900.10 2599.41,899.96"/>
    </edge>
    <edge id=":320970971_0" function="internal">
        <lane id=":320970971_0_0" index="0" disallow="tram rail_urban rail rail_electric rail_fast ship" speed="6.52" length="9.02" shape="2313.15,866.57 2313.26,869.04 2314.14,870.88 2315.78,872.10 2318.17,872.70"/>
    </edge>
    <edge id=":320970971_1" function="internal">
        <lane id=":320970971_1_0" index="0" disallow="tram rail_urban rail rail_electric rail_fast ship" speed="22.22" length="11.16" shape="2313.15,866.57 2312.10,877.69"/>
    </edge>
    <edge id=":320970971_2" function="internal">
        <lane id=":320970971_2_0" index="0" disallow="tram rail_urban rail rail_electric rail_fast ship" speed="13.89" length="11.16" shape="2307.07,871.56 2318.17,872.70"/>
    </edge>
    <edge id=":320970971_3" function="internal">
        <lane id=":320970971_3_0" index="0" disallow="tram rail_urban rail rail_electric rail_fast ship" speed="6.52" length="9.02" shape="2307.07,871.56 2309.46,872.16 2311.10,873.38 2311.98,875.22 2312.10,877.69"/>
    </edge>
    <edge id=":320970974_0" function="internal">
        <lane id=":320970974_0_0" index="0" disallow="tram rail_urban rail rail_electric rail_fast ship" speed="6.50" length="9.03" shape="2211.16,861.77 2213.64,861.67 2215.48,860.80 2216.70,859.16 2217.28,856.76"/>
    </edge>
    <edge id=":320970974_1" function="internal">